#p hf/cc-pvdz ovgf pop=full gfinput

VI-6

0 1
B       -3.937645779     -0.867803778      0.000000000
F       -4.261906622     -1.535246598     -1.148550520
F       -4.261906622     -1.535246598      1.148550520
O       -2.440895181     -0.625139546      0.000000000
O       -4.649076106      0.466510870      0.000000000
C       -1.876822859      0.533983992      0.000000000
C       -4.036163127      1.599134743      0.000000000
C       -2.653597650      1.699257377      0.000000000
C       -4.927909445      2.797328031      0.000000000
H       -2.199132926      2.673174916      0.000000000
H       -5.575780744      2.764407143     -0.877382577
H       -5.575780744      2.764407143      0.877382577
H       -4.363698957      3.726176454      0.000000000
C       -0.407775922      0.529341145      0.000000000
C        0.338202622      1.719471938      0.000000000
C        0.265973078     -0.704370157      0.000000000
C        1.722692286      1.699343812      0.000000000
C        1.643927494     -0.726444370      0.000000000
C        2.382155963      0.471696722      0.000000000
H       -0.164572871      2.674972756      0.000000000
H       -0.311654797     -1.617321116      0.000000000
H        2.276052026      2.628874398      0.000000000
C        3.806095033      0.144667858      0.000000000
C        3.942204695     -1.254874661      0.000000000
C        4.931123535      0.966252649      0.000000000
C        5.200338515     -1.835211687      0.000000000
C        6.189328946      0.377488575      0.000000000
C        6.323563641     -1.011111327      0.000000000
H        4.833271400      2.044031581      0.000000000
H        5.315447805     -2.911752014      0.000000000
H        7.074163200      0.999912815      0.000000000
H        7.311558970     -1.451956611      0.000000000
C        2.581828780     -1.909947449      0.000000000
H        2.432822841     -2.546692854     -0.876448750
H        2.432822841     -2.546692854      0.876448750

