%nprocshared=6
#p cam-b3lyp/def2tzvp pop=full gfinput

Acetilaceton

0 1
B       -0.173598302      0.016575526      0.000000000
C        0.856147953     -2.359579875      0.000000000
C        2.337480716     -0.662166461      0.000000000
H        0.674557216     -3.430616158      0.000000000
C       -0.786035132      0.604117772      1.392896982
C       -0.786035132      0.604117772     -1.392896982
H       -0.815024495      1.700431694      1.341712978
H       -0.815024495      1.700431694     -1.341712978
H       -0.086265038      0.371072514      2.206635105
H       -0.086265038      0.371072514     -2.206635105
C       -2.174776134      0.113407196      1.825989234
C       -2.174776134      0.113407196     -1.825989234
H       -2.923463235      0.377645023      1.073965257
H       -2.923463235      0.377645023     -1.073965257
H       -2.181725457     -0.982101970      1.884452060
H       -2.181725457     -0.982101970     -1.884452060
C       -2.631819871      0.663172789      3.180177395
C       -2.631819871      0.663172789     -3.180177395
H       -1.892219648      0.396413615      3.941483015
H       -1.892219648      0.396413615     -3.941483015
H       -2.637919316      1.756724715      3.136695890
H       -2.637919316      1.756724715     -3.136695890
N       -0.187748869     -1.561065164      0.000000000
N        1.418742166      0.310672475      0.000000000
S        3.950136521     -0.016987378      0.000000000
C        3.321061696      1.595531128      0.000000000
C        1.971820494      1.571011302      0.000000000
N        2.124339787     -1.983202247      0.000000000
H       -1.082283785     -2.025714078      0.000000000
C       -4.010122742      0.161252771      3.607558718
C       -4.010122742      0.161252771     -3.607558718
H       -4.025258402     -0.928013719      3.690562618
H       -4.025258402     -0.928013719     -3.690562618
H       -4.776279686      0.445149485      2.882474310
H       -4.776279686      0.445149485     -2.882474310
H       -4.304235964      0.569855544      4.575839294
H       -4.304235964      0.569855544     -4.575839294
H        3.964951330      2.456623935      0.000000000
H        1.319555285      2.428333157      0.000000000

