# opt freq b3lyp def2svp gfinput

Hffac

0 1
H        0.403205265     -2.060626406      0.000000000
O        1.342029816     -1.695377084      0.000000000
O       -1.180952488     -1.757567656      0.000000000
C        1.203129975     -0.389300050      0.000000000
C       -1.213740163     -0.517830381      0.000000000
C        0.010695933      0.258438090      0.000000000
H       -0.018781927      1.334496655      0.000000000
C        2.538810573      0.338684550      0.000000000
F        2.376646919      1.671248150      0.000000000
F        3.258269741      0.011547531      1.084744192
F        3.258269741      0.011547531     -1.084744192
C       -2.572811256      0.206346388      0.000000000
F       -2.420965956      1.544346565      0.000000000
F       -3.303401931     -0.113815768     -1.084444109
F       -3.303401931     -0.113815768      1.084444109

