#p hf/cc-pvtz ept=p3 pop=full gfinput

XIII-13

0 1
B        0.000000000      0.000000000      0.354010826
O        0.000000000     -1.224520746      1.249433882
O        0.000000000      1.224520746      1.249433882
C        0.000000000      1.197188340      2.534082563
C        0.000000000     -1.197188340      2.534082563
C        0.000000000      0.000000000      3.241686565
C        0.000000000      2.532045825      3.200795800
C        0.000000000     -2.532045825      3.200795800
H        0.000000000      0.000000000      4.318502173
H       -0.877255320      3.095167062      2.878382380
H        0.877255320      3.095167062      2.878382380
H       -0.877255320     -3.095167062      2.878382380
H        0.877255320     -3.095167062      2.878382380
H        0.000000000      2.446161721      4.284099196
H        0.000000000     -2.446161721      4.284099196
O       -1.166660321      0.000000000     -0.492558724
O        1.166660321      0.000000000     -0.492558724
C       -0.698964401      0.000000000     -1.776256202
C        0.698964401      0.000000000     -1.776256202
C       -1.419208521      0.000000000     -2.950266418
C        1.419208521      0.000000000     -2.950266418
C       -0.694482294      0.000000000     -4.150598352
C        0.694482294      0.000000000     -4.150598352
H       -2.500358517      0.000000000     -2.940090519
H        2.500358517      0.000000000     -2.940090519
H       -1.229651313      0.000000000     -5.090714946
H        1.229651313      0.000000000     -5.090714946

