%nprocshared=6
#p BHandHLYP/aug-cc-pvdz pop=full gfinput

Acetilaceton

0 1
B        2.477325492     -0.883818446     -0.234814620
F        2.918783908     -1.450639551     -1.392510743
F        2.777505187     -1.599726638      0.896969814
O        0.966537233     -0.749538830     -0.313813322
O        3.079830495      0.495621466     -0.103038913
C        0.318462838      0.317739142     -0.000007139
C        2.385756842      1.534302073      0.213837917
C        1.003266382      1.500382082      0.310427463
C        3.180398445      2.774637752      0.457431460
H        0.467940354      2.382761322      0.613154267
H        3.881042566      2.599192192      1.275457568
H        3.774665343      3.001370836     -0.429147306
H        2.546934795      3.624465943      0.697467906
C       -1.150695548      0.234253379     -0.006561404
C       -1.882362108      1.381393243     -0.348852282
C       -1.844731773     -0.955460064      0.308958148
C       -3.262153692      1.371648057     -0.399891325
C       -3.238774896     -0.923533170      0.266665292
C       -3.968082261      0.208028911     -0.089482728
H       -1.354223839      2.286430099     -0.613371503
H       -3.795201729      2.269855151     -0.684609378
H       -3.776635820     -1.827160093      0.526836317
C       -1.172969171     -2.240554302      0.718710554
H       -0.732830039     -2.746739394     -0.140423036
H       -0.363038929     -2.078143184      1.427398414
H       -1.901558730     -2.910099240      1.173564177
C       -5.470122774      0.177550330     -0.153765645
H       -5.872195381     -0.722936326      0.307915722
H       -5.905331325      1.042926102      0.348262261
H       -5.813332903      0.201381159     -1.190916610

