#p hf/cc-pvdz pop=full geom=connectivity gfinput ovgf 

¿‡‡¿

0 1
 Br                -2.35963800   -0.00002800    0.07106300
 C                  0.23369600   -1.20840300   -0.11036100
 O                  1.50943700    1.21655200   -0.15645100
 C                 -0.47255000   -0.00001400   -0.02601100
 F                  2.79623500   -0.00016000    1.35036800
 C                  0.23367900    1.20846300   -0.11020100
 O                  1.50950000   -1.21642700   -0.15684100
 B                  2.38147100   -0.00004800    0.05864500
 F                  3.36162300    0.00017900   -0.86892800
 C                 -0.43366000    2.54035200   -0.17157100
 H                  0.32499000    3.31767500   -0.31483100
 H                 -0.98191700    2.72355600    0.76489000
 H                 -1.17252200    2.56889000   -0.98475000
 C                 -0.43350200   -2.54036400   -0.17155700
 H                  0.32512700   -3.31751900   -0.31581500
 H                 -1.17329300   -2.56882100   -0.98387400
 H                 -0.98062300   -2.72394400    0.76552100

 1 4 1.0
 2 4 1.5 7 2.0 14 1.0
 3 6 2.0 8 1.0
 4 6 1.5
 5 8 1.0
 6 10 1.0
 7 8 1.0
 8 9 1.0
 9
 10 11 1.0 12 1.0 13 1.0
 11
 12
 13
 14 15 1.0 16 1.0 17 1.0
 15
 16
 17

