%nprocshared=6
#p BHandHLYP/cc-pvtz pop=full gfinput

Acetilaceton

0 1
B       -2.110717489     -0.799468382      0.000000000
F       -2.543729810     -1.398034000     -1.148813429
F       -2.543729810     -1.398034000      1.148813429
O       -0.592981561     -0.815142357      0.000000000
O       -2.581337823      0.640209839      0.000000000
C        0.157558363      0.230643606      0.000000000
C       -1.785394066      1.650305473      0.000000000
C       -0.404250063      1.510774850      0.000000000
C       -2.457017564      2.984078964      0.000000000
H        0.212032281      2.391267016      0.000000000
H       -3.101020510      3.062542882     -0.877312624
H       -3.101020510      3.062542882      0.877312624
H       -1.741662771      3.802159250      0.000000000
C        1.609917627     -0.026319778      0.000000000
C        2.549404664      1.012255672      0.000000000
C        2.065020240     -1.351040363      0.000000000
C        3.907011108      0.732317256      0.000000000
C        3.423308254     -1.626890620      0.000000000
C        4.347535714     -0.587373284      0.000000000
H        2.229087701      2.043523036      0.000000000
H        1.342371256     -2.152889858      0.000000000
H        4.622297119      1.543460055      0.000000000
H        3.761929553     -2.654005964      0.000000000
H        5.407576246     -0.803734516      0.000000000

