%nprocshared=6
#p cam-b3lyp/aug-cc-pvdz pop=full gfinput

Acetilaceton

0 1
B        1.907068144     -0.490298022     -0.438337250
C       -0.579096189     -0.061964299      0.103187838
C        0.216401387     -2.138836338      0.612546169
N        0.648850266      0.492284218     -0.023321546
N        1.494213823     -1.891918313      0.304375326
C        1.685040566     -4.061765827      1.067030406
C        2.305076833     -2.986675869      0.544982368
N       -0.810269252     -1.342834636      0.427120501
H        2.121663237     -5.009631324      1.325331464
C        3.408183233     -0.164360414      0.196237550
C        1.932162473     -0.832545127     -2.059612828
H        3.842320993     -1.167108293      0.191614253
H        2.847237297     -1.425631159     -2.205118664
C        3.426441243      0.245927800      1.678835300
C        0.773592405     -1.708839804     -2.571851246
C        4.474608932      0.612492017     -0.602067591
C        2.044022852      0.370483965     -3.010889304
H        4.596513225      0.202623430     -1.604854661
H        2.914447451      0.993357056     -2.814182427
H        4.277526317      1.676692301     -0.707144497
H        1.156043876      1.006221194     -2.950287019
H        5.444471962      0.522167289     -0.102775475
H        2.117816082      0.035671525     -4.049886850
H        3.156944081      1.291952576      1.828137415
H       -0.188059382     -1.197169313     -2.483093778
H        4.422616651      0.115593978      2.112207438
H        0.907384406     -1.945089597     -3.631602833
H        2.730155273     -0.349811879      2.272152798
H        0.691405269     -2.657848560     -2.042044118
N       -1.714677036      0.672971281     -0.036019980
H       -1.635009622      1.600950953     -0.406994798
C       -3.073200250      0.148339876      0.089606411
C       -3.558546052     -0.533640739     -1.197549977
C       -4.018029994      1.283415181      0.496949824
C       -4.999382249     -1.032502069     -1.056338000
C       -5.464689343      0.795124843      0.626087819
C       -5.947907504      0.097218129     -0.648500032
H       -2.886059371     -1.356469828     -1.439370445
H       -3.679464041      1.723746743      1.437303628
H       -5.328805570     -1.486761274     -1.993072830
H       -5.531406993      0.096732390      1.466459737
H       -6.006555313      0.829764380     -1.460716329
C        0.652991068      1.983674045      0.035386002
C        1.917303797      2.700949236     -0.432760613
C        0.296884022      2.491115902      1.450138571
C        1.689877105      4.218460953     -0.457653273
C        0.082053381      4.008058157      1.472832176
C        1.293423333      4.759096900      0.917074581
H        2.210529076      2.360825706     -1.419965012
H        1.117563368      2.224086996      2.119571114
H        0.905759009      4.458787353     -1.184309959
H       -0.802446800      4.258316523      0.875677131
H        2.136346907      4.639577460      1.605465137
H       -3.972934911      2.075916465     -0.260572680
H       -6.116991281      1.635932483      0.871318743
H       -6.959700572     -0.288017265     -0.504534219
H       -5.033298417     -1.824085876     -0.300454846
H       -3.498870274      0.186678924     -2.021112688
H       -0.111641880      2.350222810     -0.662224533
H       -0.590314483      1.985197452      1.827855306
H       -0.135426837      4.334415502      2.492256335
H        1.086431827      5.830257400      0.861758001
H        2.596772759      4.712919467     -0.812173228
H        2.736962323      2.486220843      0.246243641
H       -3.049125040     -0.598466303      0.882621293
H        3.351054921     -2.942862633      0.301145397
S       -0.005967141     -3.739921377      1.276283636

