#p b3pw91/cc-pvtz pop=full gfinput

Acetilaceton

0 1
H        0.866977000     -1.777858000      0.000010000
O       -0.118460000     -1.587078000      0.000036000
O        2.384869000     -1.178811000      0.000119000
C       -0.218307000     -0.274816000     -0.000002000
C        2.184291000      0.043257000      0.000002000
C        0.833638000      0.578661000     -0.000028000
H        0.665707000      1.642729000     -0.000061000
C       -1.664398000      0.195993000     -0.000008000
C        3.338728000      1.007306000     -0.000055000
F       -1.749590000      1.535661000     -0.000012000
H        3.288031000      1.654495000     -0.878219000
H        4.278627000      0.462443000      0.000400000
H        3.287568000      1.655255000      0.877515000
F       -2.311969000     -0.257407000     -1.084705000
F       -2.311984000     -0.257404000      1.084680000

