%nprocshared=6
#p BHandHLYP/cc-pvtz pop=full gfinput

Acetilaceton

0 1
H        0.397167000      2.101757000      0.000033000
O        1.312315000      1.714446000      0.000081000
O       -1.268014000      1.741434000     -0.000210000
C        1.176933000      0.408038000     -0.000110000
C       -1.224321000      0.515839000     -0.000327000
C       -0.008851000     -0.253195000     -0.000338000
H       -0.034455000     -1.329399000     -0.000566000
C        2.520617000     -0.310857000      0.000003000
F        2.363839000     -1.641241000     -0.000485000
F        3.231800000      0.026011000     -1.084607000
F        3.231194000      0.025283000      1.085244000
C       -2.554819000     -0.279670000     -0.000053000
F       -2.616826000     -1.074499000     -1.085476000
F       -2.618667000     -1.069905000      1.088690000
F       -3.610726000      0.523205000     -0.002644000

