#p hf/cc-pvtz pop=full gfinput ept=P3

HexaFtor

0 1
 H                  0.39716700    2.10175700    0.00003300
 O                  1.31231500    1.71444600    0.00008100
 O                 -1.26801400    1.74143400   -0.00021000
 C                  1.17693300    0.40803800   -0.00011000
 C                 -1.22432100    0.51583900   -0.00032700
 C                 -0.00885100   -0.25319500   -0.00033800
 H                 -0.03445500   -1.32939900   -0.00056600
 C                  2.52061700   -0.31085700    0.00000300
 F                  2.36383900   -1.64124100   -0.00048500
 F                  3.23180000    0.02601100   -1.08460700
 F                  3.23119400    0.02528300    1.08524400
 C                 -2.55481900   -0.27967000   -0.00005300
 F                 -2.61682600   -1.07449900   -1.08547600
 F                 -2.61866700   -1.06990500    1.08869000
 F                 -3.61072600    0.52320500   -0.00264400

