# opt freq b3lyp def2svp gfinput

HNH_O

0 1
H        0.358898556     -1.795260271      0.150559718
O       -1.367062909     -1.227328633      0.061955582
C        1.205884719      0.033308661      0.192119582
C       -1.269602974      0.010536119      0.065801053
C       -0.003551585      0.705170264      0.129782139
H        0.008873582      1.795040100      0.129422685
C        2.517190181      0.769700841      0.258372191
C       -2.560919340      0.812265238     -0.001185882
H        2.368394110      1.856740930      0.249787211
H       -2.682280923      1.518458691      0.832236616
H       -3.414812614      0.115857970     -0.014197030
H       -2.589885861      1.366062719     -0.953422926
H        3.066833723      0.499947723      1.176311516
H        3.157405463      0.498329846     -0.598348035
N        1.264609039     -1.310898416      0.196342097
H        2.148315566     -1.798359669      0.241887447

