%nprocshared=6
#p M062X/def2tzvp pop=full gfinput

Acetilaceton

0 1
B        3.928109287     -1.070396915      0.095674887
F        4.273803753     -1.628969431      1.293730461
F        4.267527426     -1.819644939     -0.995773652
O        2.424319394     -0.868395294      0.082700695
O        4.602293462      0.280151240     -0.018624348
C        1.831996153      0.271270061     -0.015658241
C        3.960178382      1.391193136     -0.114156493
C        2.574357485      1.452644601     -0.119128179
C        4.818209541      2.609085566     -0.218576128
H        2.091675313      2.409510919     -0.201010835
H        5.465201225      2.519976840     -1.092696324
H        5.468233086      2.667549276      0.655841431
H        4.228570056      3.518848559     -0.294502546
C        0.361923252      0.229991085     -0.009653059
C       -0.421137875      1.386308551     -0.112908148
C       -0.290041837     -1.004759566      0.102505475
C       -1.801799375      1.309477955     -0.105043450
C       -1.670761873     -1.076538445      0.109217318
C       -2.459325853      0.076892482      0.005255978
H        0.041912173      2.357159416     -0.210790705
H        0.301450702     -1.903420430      0.192716651
H       -2.381264039      2.215962633     -0.212074692
H       -2.147874343     -2.040303355      0.221348069
C       -3.936364728     -0.002999404      0.009251979
C       -4.599165030     -1.059860611     -0.626323622
C       -4.708838645      0.975061616      0.646833132
C       -5.985281793     -1.133786509     -0.627243384
C       -6.094847523      0.897828354      0.650673121
C       -6.739067723     -0.156019857      0.012175880
H       -4.025606963     -1.815211485     -1.146399731
H       -4.220062302      1.787482831      1.167578008
H       -6.477505276     -1.953282121     -1.133930166
H       -6.672329392      1.658206726      1.159554687
H       -7.819174122     -0.215129969      0.013519869

