#p hf/6-311++G(3df,3pd) pop=full gfinput EPT=(ovgf,ReadOrbitals) TRANS=IJAB

Acetilaceton

0 1
C        1.139280000      0.243219103     -1.828211085
C       -1.139280000     -0.243219103     -1.828211085
C        2.302963812      0.488285673     -2.608180345
C       -2.302963812     -0.488285673     -2.608180345
C        3.502565955      0.768464884     -2.019476630
C       -3.502565955     -0.768464884     -2.019476630
C        3.582415724      0.817768635     -0.617138274
C       -3.582415724     -0.817768635     -0.617138274
C        2.445407469      0.572724121      0.102284791
C       -2.445407469     -0.572724121      0.102284791
H        4.378919046      0.955762451     -2.626031716
H       -4.378919046     -0.955762451     -2.626031716
H        4.504364083      1.044840131     -0.104238985
H       -4.504364083     -1.044840131     -0.104238985
H        2.454290581      0.608755050      1.178037116
H       -2.454290581     -0.608755050      1.178037116
H        2.180046206      0.446634385     -3.679664216
H       -2.180046206     -0.446634385     -3.679664216
N        0.000000000      0.000000000     -2.475843550
N        1.248234490      0.278405862     -0.461659672
N       -1.248234490     -0.278405862     -0.461659672
B        0.000000000      0.000000000      0.524917780
C        0.229293156     -1.375557756      1.380717036
C       -0.229293156      1.375557756      1.380717036
H       -0.721643914     -1.625721864      1.865751324
H        0.721643914      1.625721864      1.865751324
H        0.405372030     -2.203462607      0.681252220
H       -0.405372030      2.203462607      0.681252220
C        1.305165147     -1.435069031      2.474901654
C       -1.305165147      1.435069031      2.474901654
H        1.212864544     -0.571005038      3.140989967
H       -1.212864544      0.571005038      3.140989967
H        2.301644746     -1.371453930      2.030347456
H       -2.301644746      1.371453930      2.030347456
C        1.239279681     -2.713698109      3.312956711
C       -1.239279681      2.713698109      3.312956711
H        1.359554387     -3.599460819      2.685268962
H       -1.359554387      3.599460819      2.685268962
H        0.275905507     -2.800695175      3.820364127
H       -0.275905507      2.800695175      3.820364127
H        2.020413258     -2.737739055      4.075612794
H       -2.020413258      2.737739055      4.075612794

48 52

