# opt freq b3lyp def2svp gfinput

HSSac

0 1
H       -0.440037000     -1.552171000      0.000869000
O       -1.406708000     -1.261459000      0.000414000
C       -1.450865000      0.052719000     -0.000165000
C        1.017174000      0.430577000     -0.000713000
C       -0.335208000      0.859205000     -0.000678000
H       -0.518176000      1.925657000     -0.000904000
C       -2.839417000      0.599492000      0.000131000
C        2.055400000      1.523369000      0.000379000
H       -2.843583000      1.686278000      0.001196000
H        1.936704000      2.153087000      0.886004000
H        3.060879000      1.113328000     -0.011006000
H       -3.378024000      0.236028000      0.877441000
H       -3.378074000      0.237923000     -0.877967000
H        1.922691000      2.170424000     -0.870522000
S        1.513048000     -1.166941000     -0.000134000

