%nprocshared=6
#p M062X/aug-cc-pvdz pop=full gfinput

Acetilaceton

0 1
B        0.000000000      0.000000000      0.791474806
O       -0.926785625      0.842585223     -0.147669195
O        0.926785625     -0.842585223     -0.147669195
C       -0.892663900      0.807493649     -1.423195907
C        0.892663900     -0.807493649     -1.423195907
C        0.000000000      0.000000000     -2.127799123
C       -1.877631996      1.693672348     -2.119082062
C        1.877631996     -1.693672348     -2.119082062
H        0.000000000      0.000000000     -3.204727761
H       -2.888481118      1.419366576     -1.813501350
H        2.888481118     -1.419366576     -1.813501350
H       -1.717454147      2.726546978     -1.806315372
H        1.717454147     -2.726546978     -1.806315372
H       -1.795478299      1.625370726     -3.200791685
H        1.795478299     -1.625370726     -3.200791685
C       -0.920534260     -1.037587391      1.601104763
C        0.920534260      1.037587391      1.601104763
H       -0.271222431     -1.732860924      2.144287567
H        0.271222431      1.732860924      2.144287567
H       -1.474358884     -1.661137552      0.887325220
H        1.474358884      1.661137552      0.887325220
C       -1.913180644     -0.400930082      2.582738804
C        1.913180644      0.400930082      2.582738804
H       -1.396997302      0.163628007      3.361808834
H        1.396997302     -0.163628007      3.361808834
H       -2.533945023     -1.148829180      3.081307216
H        2.533945023      1.148829180      3.081307216
H       -2.584715089      0.294061630      2.074069457
H        2.584715089     -0.294061630      2.074069457

