%nprocshared=6
#p WB97X/6-311++G(3df,3pd) pop=full gfinput

Acetilaceton

0 1
B       -1.872456491     -0.469175021      0.386619058
C        0.586581157     -0.121132943     -0.182044556
C       -0.224421215     -2.210950249     -0.769950048
N       -0.619590331      0.473649784     -0.027207695
N       -1.462606797     -1.954327200     -0.234201818
C       -2.072325163     -4.208331247     -0.699491245
C       -2.332507419     -2.978360110     -0.154982929
N        0.774581306     -1.364854934     -0.626957059
H       -2.780062064     -5.018464503     -0.622801636
C       -3.324473051     -0.161780338     -0.377090393
C       -1.957901080     -0.747509365      2.022207344
H       -3.757257964     -1.162162760     -0.456294922
H       -2.810955794     -1.430256612      2.150916430
C       -3.196123415      0.285842756     -1.844155156
C       -0.727120997     -1.477362834      2.595236339
C       -4.456274266      0.605195418      0.333896505
C       -2.239009467      0.443681908      2.952217340
H       -4.682716445      0.170154414      1.308277701
H       -3.134951775      0.999800429      2.683976399
H       -4.254001111      1.662563027      0.490144608
H       -1.399377279      1.143520093      2.966114978
H       -5.373213492      0.546198149     -0.260827991
H       -2.371035912      0.099305359      3.982240210
H       -2.895416443      1.328522022     -1.942832925
H        0.169238742     -0.855587112      2.524834766
H       -4.150113961      0.182769790     -2.369607522
H       -0.867794997     -1.707371767      3.655275595
H       -2.457973479     -0.309753032     -2.385222207
H       -0.510007687     -2.418648840      2.090605203
C       -0.859307616     -4.327784615     -1.389856206
H       -0.617382687     -5.240031889     -1.927412621
N        1.741207618      0.556027506      0.046438765
H        1.682548817      1.461116580      0.474118275
C        3.085267023      0.006496189     -0.121385959
C        3.557274898     -0.761392045      1.121232350
C        4.056386166      1.139377937     -0.468690947
C        4.986203863     -1.283735360      0.947548303
C        5.489607257      0.623229409     -0.632397788
C        5.959321068     -0.154106884      0.600039503
H        2.866131187     -1.582009878      1.313855502
H        3.725696382      1.639925775     -1.381326036
H        5.307137105     -1.797428983      1.856178917
H        5.534982220     -0.030127318     -1.509474077
H        6.036758025      0.530745784      1.451432014
C       -0.577277065      1.966193275     -0.008402650
C       -1.855353895      2.696266398      0.404414610
C       -0.122633278      2.534781999     -1.371785924
C       -1.591373305      4.202695920      0.529490970
C        0.136876465      4.043405955     -1.299992155
C       -1.084684311      4.804707894     -0.781474683
H       -2.233140094      2.316573909      1.345994880
H       -0.910809858      2.330227620     -2.099603801
H       -0.857024646      4.380507213      1.322849396
H        0.989208422      4.233157654     -0.637342588
H       -1.882493212      4.753776346     -1.529543204
N        0.037821083     -3.374032476     -1.425923285
H        4.034708151      1.889389085      0.332092144
H        6.162017178      1.459556770     -0.835118880
H        6.961560105     -0.554269233      0.431692700
H        5.000218337     -2.031796611      0.148299534
H        3.514272513     -0.091613493      1.987577403
H        0.150817919      2.274871720      0.755017114
H        0.768965570      2.022966345     -1.728531079
H        0.428508660      4.414188057     -2.285060568
H       -0.848054980      5.863095095     -0.650821002
H       -2.509326234      4.703365983      0.844800418
H       -2.627652540      2.541224670     -0.344255455
H        3.032073053     -0.693365681     -0.954682058
H       -3.255216186     -2.783095299      0.367287331

