# opt freq b3lyp def2tzvpp gfinput

Acetilaceton

0 1
O        1.369577000     -1.373398000      0.000284000
C        1.624785000     -0.154780000      0.000155000
C        0.607737000      0.865784000      0.000152000
C       -0.750549000      0.567781000      0.000200000
C       -1.785457000      1.660510000      0.000011000
H       -2.438586000      1.589081000      0.885862000
H       -1.310101000      2.649268000     -0.000089000
H       -2.438511000      1.588865000     -0.885880000
C        3.083347000      0.276242000     -0.000342000
H        3.584402000     -0.151719000      0.882923000
H        3.583313000     -0.149977000     -0.885077000
H        3.217448000      1.367200000      0.000613000
H        0.904869000      1.914400000      0.000003000
N       -1.177862000     -0.709125000      0.000248000
H       -0.395696000     -1.384261000      0.000055000
C       -2.551939000     -1.149913000     -0.000342000
H       -2.569240000     -2.248477000      0.000595000
H       -3.109097000     -0.807778000      0.890424000
H       -3.107934000     -0.809296000     -0.892441000

