# opt freq b3lyp def2tzvpp gfinput

Hffac

0 1
H        0.895043000     -1.751060000     -0.000026000
O       -0.107111000     -1.579125000     -0.000010000
O        2.367780000     -1.181686000      0.000007000
C       -0.222431000     -0.273157000     -0.000033000
C        2.182223000      0.046536000      0.000032000
C        0.833183000      0.594827000      0.000008000
H        0.661316000      1.669375000      0.000006000
C       -1.671765000      0.194700000     -0.000006000
C        3.353704000      0.995922000      0.000008000
F       -1.754779000      1.531830000     -0.000096000
H        3.313092000      1.650114000     -0.886467000
H        4.293489000      0.429461000      0.000489000
H        3.312674000      1.651064000      0.885756000
F       -2.312118000     -0.261292000     -1.082573000
F       -2.312042000     -0.261141000      1.082691000

