%nprocshared=6
#p WB97X/6-311++G(3df,3pd) pop=full gfinput

Acetilaceton

0 1
B       -1.518087028     -0.168769259      0.069937478
C        1.054315558      0.461141681      0.084637762
C       -0.538717343      2.242450050      0.234453052
C       -2.194529405     -0.670873712     -1.324180228
H       -3.276189769     -0.747996884     -1.167130015
H       -2.073874088      0.113041137     -2.081976398
C       -1.693482056     -1.987433692     -1.936019398
H       -1.774661308     -2.803337826     -1.212555675
H       -0.626596201     -1.902478144     -2.176254108
C       -2.437606491     -2.387962349     -3.211263021
H       -2.350684204     -1.611289968     -3.974219138
H       -3.501578349     -2.531153911     -3.011839476
H       -2.049492529     -3.317337698     -3.634111131
C       -2.096717002     -0.807880095      1.447152122
H       -1.550584851     -0.380649203      2.300036300
H       -3.123904935     -0.442277289      1.558276925
C       -2.109324314     -2.333720390      1.597278572
H       -1.103691497     -2.743403541      1.437632106
H       -2.734653814     -2.775454732      0.817432546
C       -2.614866794     -2.807659803      2.961153274
H       -3.633668176     -2.457454949      3.139347065
H       -1.991115422     -2.417620297      3.768942931
H       -2.618541379     -3.897226740      3.038289560
N        0.083773629     -0.400634562      0.001237404
N       -1.571582079      1.403050156      0.171911487
N       -0.889390304      3.510849630      0.318786499
C       -2.244554993      3.396855171      0.301726269
N       -2.700753166      2.159536227      0.214619136
H       -2.905440763      4.245934399      0.355075819
N        0.772484911      1.770379465      0.209412400
H        1.514035809      2.439546912      0.327314944
H        0.388431573     -1.350261410     -0.149771603
C        2.488342131      0.077965043      0.013371978
C        3.259856676      0.628311341     -1.014923977
C        3.062862793     -0.807433670      0.942033360
C        4.599190251      0.296840932     -1.149769994
C        4.415820238     -1.115302589      0.789081622
C        5.177020881     -0.580877634     -0.241294602
H        2.797227648      1.303417189     -1.722989371
H        5.183164886      0.719164025     -1.955667482
H        4.880893502     -1.782757149      1.503245935
H        6.222385554     -0.844736718     -0.329603491
C        2.291351207     -1.406389798      2.091146437
H        1.765204007     -2.316053480      1.793125323
H        2.969332648     -1.678588474      2.898504499
H        1.544846644     -0.722226070      2.491143133

