%nprocshared=6
#p M062X/cc-pvtz pop=full gfinput

Acetilaceton

0 1
B        2.850092184     -1.360372652      0.000000000
F        3.066112647     -2.068260252      1.148717311
F        3.066112647     -2.068260252     -1.148717311
O        1.412535896     -0.880798463      0.000000000
O        3.766692262     -0.153646520      0.000000000
C        1.043027924      0.353780018      0.000000000
C        3.344324090      1.060920019      0.000000000
C        1.993236030      1.379820477      0.000000000
C        4.414373113      2.102540260      0.000000000
H        1.698238777      2.413196814      0.000000000
H        5.048969655      1.966794962      0.877213895
H        5.048969655      1.966794962     -0.877213895
H        4.004630093      3.109096098      0.000000000
C       -1.265090882     -0.494037061      0.000000000
C       -0.409444418      0.590937912      0.000000000
C       -0.958484493      1.902407126      0.000000000
C       -2.311199093      2.092510503      0.000000000
H       -0.308433399      2.764354276      0.000000000
H       -2.716775572      3.096169643      0.000000000
C       -5.440450510      0.063540445      0.000000000
C       -4.906231262     -1.243366500      0.000000000
C       -4.610860830      1.156233314      0.000000000
C       -3.549677749     -1.434603693      0.000000000
C       -3.206659617      0.993606693      0.000000000
C       -2.664780638     -0.327218861      0.000000000
H       -5.574699148     -2.093714472      0.000000000
H       -5.023019203      2.157285219      0.000000000
H       -3.134240785     -2.434086410      0.000000000
H       -6.513737221      0.200042354      0.000000000
H       -0.851075309     -1.492082865      0.000000000

