%nprocshared=6
#p M062X/cc-pvtz pop=full gfinput

Acetilaceton

0 1
 O                 -1.28569900   -0.88780200    0.00000000
 C                 -1.18394200    0.42507400    0.00000000
 C                  1.23164300    0.36058700    0.00000000
 C                  0.00000000    1.09611300    0.00000000
 H                  0.00991500    2.17511100    0.00000000
 O                  1.28921600   -0.87451100    0.00000000
 H                 -2.14168400    0.93395300    0.00000000
 H                  2.16917200    0.93856200    0.00000000
 H                 -0.35175300   -1.23977400    0.00000000

