%nprocshared=6
#p hf/def2tzvp pop=full gfinput EPT=(ovgf,ReadOrbitals) TRANS=IJAB

Acetilaceton

0 1
O       -1.285699000     -0.887802000      0.000000000
C       -1.183942000      0.425074000      0.000000000
C        1.231643000      0.360587000      0.000000000
C        0.000000000      1.096113000      0.000000000
H        0.009915000      2.175111000      0.000000000
O        1.289216000     -0.874511000      0.000000000
H       -2.141684000      0.933953000      0.000000000
H        2.169172000      0.938562000      0.000000000
H       -0.351753000     -1.239774000      0.000000000

6 14