%nprocshared=6
#p cam-b3lyp/6-311++G(3df,3pd) pop=full gfinput

Acetilaceton

0 1
B        1.239302588     -0.592563253      0.000000000
N       -0.834086179      0.221243684      1.179975605
N       -0.834086179      0.221243684     -1.179975605
N        0.404930297     -0.125479322      1.240363079
N        0.404930297     -0.125479322     -1.240363079
C       -1.453004347      0.295342177      0.000000000
O        1.481856415     -2.044730481      0.000000000
O        2.581369053     -0.022610663      0.000000000
C        0.495647457     -2.953141512      0.000000000
C        2.810596727      1.300302145      0.000000000
O       -0.678676371     -2.670992116      0.000000000
O        1.938273011      2.135980025      0.000000000
C        1.026729416     -4.363418779      0.000000000
C        4.283956100      1.610815025      0.000000000
H        4.754435900      1.167553163      0.878095607
H        4.754435900      1.167553163     -0.878095607
H        1.653577499     -4.524807160      0.877539171
H        1.653577499     -4.524807160     -0.877539171
H        0.200932548     -5.068085079      0.000000000
H        4.434812521      2.685873768      0.000000000
C        1.002603265      0.002480159      2.530164708
C        1.002603265      0.002480159     -2.530164708
C        2.074533601     -0.817059412      2.889873980
C        2.074533601     -0.817059412     -2.889873980
C        0.513293257      0.946404089      3.435615877
C        0.513293257      0.946404089     -3.435615877
C        2.636922495     -0.697337011      4.153474020
C        2.636922495     -0.697337011     -4.153474020
C        1.083259214      1.054954462      4.693987629
C        1.083259214      1.054954462     -4.693987629
C        2.145407885      0.233946259      5.060705339
C        2.145407885      0.233946259     -5.060705339
H        2.456200355     -1.546881544      2.193287402
H        2.456200355     -1.546881544     -2.193287402
H       -0.298191119      1.591996655      3.137965625
H       -0.298191119      1.591996655     -3.137965625
H        3.460990353     -1.341543430      4.429470719
H        3.460990353     -1.341543430     -4.429470719
H        0.703423851      1.793105775      5.387591583
H        0.703423851      1.793105775     -5.387591583
H        2.588700252      0.323552963      6.043262924
H        2.588700252      0.323552963     -6.043262924
C       -2.904681228      0.579534046      0.000000000
C       -3.611198599      0.712217520      1.198429025
C       -3.611198599      0.712217520     -1.198429025
C       -4.972636753      0.977025159      1.193075172
C       -4.972636753      0.977025159     -1.193075172
C       -5.682872612      1.114365680      0.000000000
H       -3.088526694      0.604197702      2.137282076
H       -3.088526694      0.604197702     -2.137282076
H       -5.493525405      1.077855970      2.137647696
H       -5.493525405      1.077855970     -2.137647696
C       -7.167379150      1.364674193      0.000000000
H       -7.476859219      1.924342155      0.882943984
H       -7.476859219      1.924342155     -0.882943984
H       -7.723716141      0.423362241      0.000000000

