%nprocshared=6
#p cam-b3lyp/aug-cc-pvdz pop=full gfinput

Acetilaceton

0 1
B        0.000000000      0.000000000     -0.568371824
C        1.067701478      0.423140309      1.743622406
C       -1.067701478     -0.423140309      1.743622406
C       -0.485018993      1.288058360     -1.441051796
C        0.485018993     -1.288058360     -1.441051796
H       -0.795078290      2.090553199     -0.758274524
H        0.795078290     -2.090553199     -0.758274524
H        0.375096349      1.696269667     -1.989481699
H       -0.375096349     -1.696269667     -1.989481699
C        1.616524352     -1.039577646     -2.446692645
C       -1.616524352      1.039577646     -2.446692645
H        2.491524888     -0.628410193     -1.928545564
H       -2.491524888      0.628410193     -1.928545564
H        1.310690695     -0.271179473     -3.162550105
H       -1.310690695      0.271179473     -3.162550105
C        2.051983993     -2.289177742     -3.213771364
C       -2.051983993      2.289177742     -3.213771364
H       -1.217643106      2.707938842     -3.781146746
H        1.217643106     -2.707938842     -3.781146746
H        2.404074467     -3.065930954     -2.531114332
H       -2.404074467      3.065930954     -2.531114332
H        2.858476215     -2.074201521     -3.918471142
H       -2.858476215      2.074201521     -3.918471142
N        1.134955379      0.450243323      0.435859899
N       -1.134955379     -0.450243323      0.435859899
N        0.000000000      0.000000000      2.433657365
H        1.998971233      0.797808026      0.049231228
H       -1.998971233     -0.797808026      0.049231228
C        2.229710040      0.880912422      2.593008915
C       -2.229710040     -0.880912422      2.593008915
H        1.834949524      1.643614011      3.267826994
H       -1.834949524     -1.643614011      3.267826994
H        2.487326875      0.038651661      3.239304073
H       -2.487326875     -0.038651661      3.239304073
C        3.465788202      1.395682927      1.864746643
C       -3.465788202     -1.395682927      1.864746643
H        4.226117610      1.693922118      2.586088836
H       -4.226117610     -1.693922118      2.586088836
H        3.912293511      0.632015538      1.224957701
H       -3.912293511     -0.632015538      1.224957701
H        3.243852720      2.270410246      1.250486269
H       -3.243852720     -2.270410246      1.250486269

