%nprocshared=6
#p hf/cc-pvtz EPT=P3 pop=full gfinput

Acetilaceton

0 1
O        1.404471000      1.430609000     -0.298495000
C        1.202736000      0.306686000      0.101868000
C        0.000111000     -0.000186000      1.006854000
C       -1.202734000     -0.306810000      0.101716000
O       -1.404924000     -1.430602000     -0.298600000
C       -2.050034000      0.880710000     -0.291880000
H       -2.580733000      1.267941000      0.594557000
H       -1.401722000      1.695147000     -0.655066000
H       -2.778693000      0.590557000     -1.059957000
C        2.050361000     -0.880479000     -0.291979000
H        1.402207000     -1.694638000     -0.656185000
H        2.779167000     -0.589552000     -1.059631000
H        2.580699000     -1.268611000      0.594232000
H       -0.190767000      0.884754000      1.629667000
H        0.190825000     -0.885175000      1.629681000

