# opt freq b3lyp def2svp gfinput

HSSac

0 1
H        2.218739000     -0.056001000      0.000000000
S        1.519372000      1.135983000      0.000000000
O        2.089762000     -1.780682000      0.000000000
C        0.000728000      0.281046000      0.000000000
C        0.892137000     -2.073560000      0.000000000
C       -0.179959000     -1.069655000      0.000000000
H       -1.205584000     -1.439003000      0.000000000
C       -1.216922000      1.199599000      0.000000000
C        0.496358427     -3.536010699      0.000000000
F       -2.369098000      0.514569000      0.000000000
H       -0.135373268     -3.817084056      0.853065951
H        1.409610978     -4.152239889      0.002658773
H       -0.035106681     -3.761260354     -0.938393914
F       -1.216922000      1.991878000      1.081416000
F       -1.216922000      1.991878000     -1.081416000

