# opt freq b3lyp def2tzvpp gfinput

Hffac

0 1
H       -1.107737000      1.941180000      0.000012000
S        0.268523000      1.886270000     -0.000013000
O       -2.582265000      0.974925000      0.000030000
C        0.241747000      0.140806000      0.000001000
C       -2.255530000     -0.211350000     -0.000018000
C       -0.854899000     -0.664459000      0.000030000
H       -0.687449000     -1.742528000      0.000020000
C        1.631728000     -0.486394000      0.000002000
C       -3.310767000     -1.295468000     -0.000036000
F        1.583715000     -1.826206000     -0.000077000
H       -3.195273000     -1.941575000     -0.886177000
H       -4.309667000     -0.841503000      0.000074000
H       -3.195198000     -1.941531000      0.886170000
F        2.327240000     -0.106423000     -1.081363000
F        2.327200000     -0.106544000      1.081439000

