%nprocshared=6
#p WB97X/cc-pvtz pop=full gfinput

Acetilaceton

0 1
B       -2.615706000     -0.746027000      0.000000000
F       -3.060224000     -1.337988000      1.148753000
F       -3.060224000     -1.337988000     -1.148753000
O       -1.098790000     -0.791520000      0.000000000
O       -3.060224000      0.700477000      0.000000000
C       -0.327740000      0.240113000      0.000000000
C       -2.244552000      1.696043000      0.000000000
C       -0.867584000      1.531098000      0.000000000
C       -2.891943000      3.041983000      0.000000000
H       -0.235315000      2.400225000      0.000000000
H       -3.534170000      3.132649000      0.877431000
H       -3.534170000      3.132649000     -0.877431000
H       -2.161098000      3.846377000      0.000000000
C        1.116183000     -0.040745000      0.000000000
C        2.076250000      0.976548000      0.000000000
C        1.556906000     -1.371794000      0.000000000
C        3.428212000      0.672290000      0.000000000
C        2.907728000     -1.665715000      0.000000000
C        3.870669000     -0.651369000      0.000000000
H        1.778636000      2.014805000      0.000000000
H        0.825477000     -2.165952000      0.000000000
H        4.152896000      1.476356000      0.000000000
H        3.224647000     -2.701202000      0.000000000
C        5.336227000     -0.986431000      0.000000000
H        5.601622000     -1.578534000      0.878148000
H        5.601622000     -1.578534000     -0.878148000
H        5.952399000     -0.088720000      0.000000000

