#p hf/6-311++G(3df,3pd) pop=full gfinput EPT=(ovgf,ReadOrbitals) TRANS=IJAB

Acetilaceton

0 1
B        2.390790747      1.005373049      0.000000000
F        2.757099246      1.648670152      1.148752655
F        2.757099246      1.648670152     -1.148752655
O        0.880250452      0.859184165      0.000000000
O        3.014196537     -0.373517041      0.000000000
C        0.245469491     -0.261458258      0.000000000
C        2.330601103     -1.464007914      0.000000000
C        0.943825472     -1.474046945      0.000000000
C        3.142577256     -2.717549186      0.000000000
H        0.426222867     -2.415977182      0.000000000
H        3.791110532     -2.726490938      0.877431072
H        3.791110532     -2.726490938     -0.877431072
H        2.519020390     -3.607695577      0.000000000
C       -1.222345070     -0.164954507      0.000000000
C       -2.046442122     -1.295210477      0.000000000
C       -1.827425134      1.099880253      0.000000000
C       -3.425981757     -1.163895783      0.000000000
C       -3.204530575      1.221084436      0.000000000
C       -4.031849207      0.093389325      0.000000000
H       -1.620256125     -2.287640885      0.000000000
H       -1.201998657      1.979946297      0.000000000
H       -4.043468055     -2.052939686      0.000000000
H       -3.649517206      2.208331603      0.000000000
C       -5.527963692      0.240935315      0.000000000
H       -5.865917472      0.794837999      0.878148258
H       -5.865917472      0.794837999     -0.878148258
H       -6.025993361     -0.727320647      0.000000000

39 42

