# opt freq b3lyp def2svp gfinput

CH3SAcac

0 1
O        1.535790000     -1.352451000     -0.000386000
C        1.880589000     -0.176184000     -0.000070000
C       -0.453565000      0.719473000     -0.000040000
C        0.899748000      0.909865000     -0.000173000
H        1.267153000      1.939206000     -0.000361000
C        3.358696000      0.186810000      0.000526000
C       -1.379810000      1.906372000     -0.000202000
H        3.599393751      1.052573408      0.633410186
H       -0.802127000      2.841115000     -0.000527000
H       -2.035789000      1.908807000     -0.885486000
H        3.676137248      0.394825282     -1.033815093
H        3.940479881     -0.684326774      0.341924232
H       -2.035531000      1.909303000      0.885281000
S       -1.134579000     -0.906309000     -0.000291000
C       -2.939400000     -0.594936000      0.000649000
H       -3.385560000     -1.599858000      0.000759000
H       -3.279425000     -0.064498000      0.901378000
H       -3.280407000     -0.064248000     -0.899569000

