#p hf/cc-pvtz ovgf pop=full Trans=IJAB gfinput

Acetilaceton

0 1
S       -1.663196000     -1.193861000     -0.000191000
S        1.659796000     -1.214339000      0.000078000
C       -1.249859000      0.481605000     -0.000074000
C        1.305578000      0.411423000      0.000133000
C        0.011735000      1.016711000      0.000051000
H        0.032788000      2.101851000      0.000097000
C       -2.444405000      1.396078000     -0.000145000
C        2.451131000      1.395807000      0.000269000
H       -3.067772000      1.213585000      0.877323000
H       -3.067474000      1.213818000     -0.877875000
H        3.409893000      0.886366000      0.000170000
H        2.390532000      2.044208000     -0.877925000
H       -2.140201000      2.441070000      0.000042000
H        2.390562000      2.043891000      0.878702000
H       -0.339004000     -1.623324000     -0.000125000

