# opt freq b3lyp def2svp gfinput

HSSac

0 1
H        0.345290000     -1.707552000      0.001251000
O       -1.427377000     -1.295614000      0.000024000
C       -1.514515000     -0.068567000     -0.000100000
C        0.946655000      0.499151000     -0.000215000
C       -0.367826000      0.833799000      0.000014000
H       -0.600457000      1.891903000      0.000448000
C       -2.878169000      0.587993000     -0.000064000
C        2.014916000      1.555925000      0.000071000
H       -2.991529000      1.229026000     -0.877129000
H        2.655911000      1.454823000     -0.877971000
H        1.578812000      2.553087000      0.000433000
H       -2.992577000      1.225539000      0.879420000
H       -3.653889000     -0.172903000     -0.001926000
H        2.655874000      1.454006000      0.878013000
S        1.575951000     -1.125802000     -0.000061000

