# opt freq b3lyp def2tzvpp gfinput MaxDisk=450Gb

Acetilaceton

0 1
O        3.895008000     -1.485119000      0.270276000
C        4.573267000     -0.479454000     -0.009193000
C        4.019075000      0.849624000     -0.094105000
C        2.674853000      1.120614000      0.129033000
C        2.149100000      2.528354000      0.023534000
H        1.726464000      2.868595000      0.983575000
H        2.954298000      3.217835000     -0.258664000
H        1.348805000      2.608618000     -0.730285000
C        6.061144000     -0.659438000     -0.263360000
H        6.549943000     -0.965129000      0.676760000
H        6.207581000     -1.482664000     -0.979677000
H        6.552882000      0.248881000     -0.639129000
H        4.676259000      1.682041000     -0.344847000
N        1.822036000      0.127415000      0.460711000
H        2.298214000     -0.790689000      0.497691000
C        0.392109000      0.210428000      0.633455000
H        0.095103000     -0.446421000      1.468608000
H        0.091108000      1.228715000      0.920769000
H       -6.213048000      1.501648000      0.950914000
H       -6.547575000     -0.242096000      0.662423000
C       -6.062033000      0.658115000      0.259906000
H       -6.553924000      0.931164000     -0.688795000
C       -4.573391000      0.479530000      0.009254000
O       -3.895339000      1.485289000     -0.270132000
C       -4.018747000     -0.849394000      0.095091000
H       -4.675827000     -1.681830000      0.346109000
C       -2.674569000     -1.120253000     -0.128076000
C       -2.148615000     -2.527900000     -0.022252000
H       -2.953675000     -3.217413000      0.260266000
H       -1.348178000     -2.607866000      0.731447000
H       -1.726108000     -2.868351000     -0.982274000
N       -1.821780000     -0.127037000     -0.459969000
H       -2.297912000      0.791013000     -0.497216000
H       -0.090789000     -1.228273000     -0.919957000
C       -0.391844000     -0.209997000     -0.632661000
H       -0.094843000      0.446843000     -1.467824000


