#p hf/cc-pvtz ovgf pop=full gfinput

IV

0 1
O       -3.906382000     -1.490022000     -0.278399000
C       -4.574186000     -0.478495000      0.002014000
C       -4.011942000      0.837932000      0.085464000
C       -2.674620000      1.109578000     -0.130304000
C       -2.158686000      2.516227000     -0.020486000
H       -1.748335000      2.860471000     -0.972002000
H       -2.963137000      3.187884000      0.265336000
H       -1.365184000      2.597429000      0.724644000
C       -6.056507000     -0.646403000      0.270391000
H       -6.529341000     -1.085438000     -0.609386000
H       -6.191870000     -1.350751000      1.092418000
H       -6.555132000      0.289919000      0.514688000
H       -4.660954000      1.663710000      0.331777000
N       -1.817700000      0.126509000     -0.458078000
H       -2.273618000     -0.789710000     -0.505106000
C       -0.386978000      0.224273000     -0.628803000
H       -0.090902000     -0.404724000     -1.470944000
H       -0.100139000      1.243015000     -0.883805000
H        6.191934000      1.351196000     -1.091888000
H        6.555055000     -0.289843000     -0.515083000
C        6.056525000      0.646394000     -0.270261000
H        6.529431000      1.084879000      0.609754000
C        4.574200000      0.478480000     -0.001918000
O        3.906396000      1.489991000      0.278552000
C        4.011936000     -0.837929000     -0.085514000
H        4.660936000     -1.663695000     -0.331901000
C        2.674608000     -1.109569000      0.130219000
C        2.158651000     -2.516200000      0.020292000
H        2.963086000     -3.187847000     -0.265598000
H        1.365134000     -2.597330000     -0.724829000
H        1.748312000     -2.860516000      0.971788000
N        1.817704000     -0.126507000      0.458055000
H        2.273636000      0.789700000      0.505149000
H        0.100135000     -1.243002000      0.883785000
C        0.386981000     -0.224263000      0.628776000
H        0.090911000      0.404741000      1.470913000

