#p hf/6-311++G(3df,3pd) pop=full gfinput EPT=(ovgf,ReadOrbitals) TRANS=IJAB

Acetilaceton

0 1
B       -0.244026315     -0.128808198      0.000000000
N       -0.496250505      2.083172354     -1.188216175
N       -0.496250505      2.083172354      1.188216175
N       -0.249212681      0.819424577     -1.253921346
N       -0.249212681      0.819424577      1.253921346
C       -0.668928762      2.646816196      0.000000000
O       -1.394284323     -1.045854792      0.000000000
O        0.910809293     -1.018170134      0.000000000
C       -2.666321362     -0.619336573      0.000000000
C        2.173363785     -0.560680855      0.000000000
O       -2.984643264      0.545711761      0.000000000
O        2.464218457      0.611822624      0.000000000
C       -3.645091906     -1.764918830      0.000000000
C        3.174847714     -1.684964424      0.000000000
H        3.023886279     -2.313534178     -0.878046350
H        3.023886279     -2.313534178      0.878046350
H       -3.483557105     -2.391518766     -0.877679557
H       -3.483557105     -2.391518766      0.877679557
H       -4.660823235     -1.381860827      0.000000000
H        4.182785228     -1.281805110      0.000000000
H       -0.914258583      3.696181430      0.000000000
C        0.069349988      0.334195242     -2.558139596
C        0.069349988      0.334195242      2.558139596
C       -0.105607875     -1.016162545     -2.870463555
C       -0.105607875     -1.016162545      2.870463555
C        0.559115491      1.212937675     -3.528099351
C        0.559115491      1.212937675      3.528099351
C        0.194610973     -1.471400597     -4.147359228
C        0.194610973     -1.471400597      4.147359228
C        0.853442047      0.745256787     -4.798350595
C        0.853442047      0.745256787      4.798350595
C        0.671803291     -0.597415250     -5.116524475
C        0.671803291     -0.597415250      5.116524475
H       -0.481749332     -1.701397582     -2.127773736
H       -0.481749332     -1.701397582      2.127773736
H        0.709247837      2.249925242     -3.272441810
H        0.709247837      2.249925242      3.272441810
H        0.048557500     -2.516903688     -4.383713028
H        0.048557500     -2.516903688      4.383713028
H        1.236683150      1.432007141     -5.541131752
H        1.236683150      1.432007141      5.541131752
H        0.905197691     -0.958772582     -6.108928788
H        0.905197691     -0.958772582      6.108928788

59 66

