# opt freq b3lyp cc-pvdz gfinput pop=(full,NBO)

Hffac

0 1
H        0.485125000      1.799072000      0.000838000
O       -1.331440000      1.275096000      0.000099000
C        1.198822000     -0.089450000     -0.000095000
C       -1.273291000      0.038238000      0.000051000
C       -0.032793000     -0.695350000     -0.000390000
H       -0.068852000     -1.774662000     -0.000816000
C        2.469543000     -0.888777000      0.000117000
C       -2.554680296     -0.773571645      0.000037539
H        2.262423000     -1.955487000     -0.001625000
H       -2.444644442     -1.663321352     -0.623673301
H       -3.372775882     -0.165452533     -0.377519061
H       -2.791492708     -1.115483312      1.009897605
H        3.071612000     -0.651403000     -0.880094000
H        3.069578000     -0.653981000      0.882423000
N        1.337973000      1.247623000     -0.000023000
H        2.244895000      1.675200000      0.001765000

