%nprocshared=6
# opt freq b3lyp def2tzvpp gfinput

Hffac

0 1
O       -1.570309347      0.947729588      0.041048802
N        2.353238000     -0.851134000      0.099893000
C        1.195475000     -0.119026000     -0.012913000
C       -0.005325000     -0.754104000     -0.017122000
C        1.450825000      1.361980000     -0.056751000
C       -1.378907000     -0.260791000     -0.006484000
C       -2.587569287     -1.182207933     -0.064557950
H        0.018996000     -1.839345000     -0.006428000
H        1.636806000      1.743456000      0.949778000
H        2.342641000      1.570570000     -0.651309000
H        0.627069000      1.916654000     -0.485930000
H       -2.699636506     -1.736403713      0.869772961
H       -2.518793324     -1.904901744     -0.877603795
H       -3.469973033     -0.562951318     -0.204087648
H        3.216415000     -0.444312000     -0.213845000
H        2.295636000     -1.852414000      0.023208000

