%nprocshared=6
# opt freq b3lyp def2tzvpp gfinput

Hffac

0 1
O       -2.296042000     -1.071089000     -0.047676000
N        1.240581924      1.253750312     -0.063638177
C        1.195475000     -0.119026000     -0.012913000
C       -0.005325000     -0.754104000     -0.017122000
C        2.563643669     -0.742363323     -0.021233997
C       -1.378907000     -0.260791000     -0.006484000
C       -1.724316000      1.218615000      0.066295000
H        0.018996000     -1.839345000     -0.006428000
H        2.966202237     -0.756990215     -1.036589183
H        3.248405946     -0.150265333      0.589393038
H        2.565467921     -1.754073651      0.362003127
H       -1.470341000      1.723923000     -0.867957000
H       -1.200901000      1.726823000      0.876123000
H       -2.797170000      1.301250000      0.220371000
H        2.068160027      1.723673008      0.257760872
H        0.382197092      1.765312760      0.051425111

