%nprocshared=6
#p M062X/6-311++G(3df,3pd) pop=full gfinput

Acetilaceton

0 1
B        0.934778101      0.499184457      0.000000000
O       -0.481321771     -0.036469721      0.000000000
O        0.857245128      2.006856058      0.000000000
C       -1.557030853      0.673539558      0.000000000
C       -0.240426500      2.680431753      0.000000000
C       -1.485265541      2.068905922      0.000000000
H       -2.371503919      2.676925960      0.000000000
O        1.643588940      0.029553202      1.166925803
O        1.643588940      0.029553202     -1.166925803
C        2.711455806     -0.680881194      0.699190249
C        2.711455806     -0.680881194     -0.699190249
C        3.689313005     -1.331364796      1.419024810
C        3.689313005     -1.331364796     -1.419024810
C        4.689074515     -1.996181335      0.694455467
C        4.689074515     -1.996181335     -0.694455467
H        3.681254824     -1.325200762      2.500230992
H        3.681254824     -1.325200762     -2.500230992
H        5.472069944     -2.516460622      1.229793860
H        5.472069944     -2.516460622     -1.229793860
C       -2.822010399     -0.082955665      0.000000000
C       -4.068377884      0.555986681      0.000000000
C       -2.778651600     -1.483210374      0.000000000
C       -5.238919518     -0.186105007      0.000000000
C       -3.951533087     -2.221644843      0.000000000
C       -5.183825207     -1.576388204      0.000000000
H       -4.133588991      1.633889834      0.000000000
H       -1.819174760     -1.977746460      0.000000000
H       -6.195013350      0.319341230      0.000000000
H       -3.904864708     -3.302118333      0.000000000
H       -6.098635273     -2.153971714      0.000000000
C       -0.070738817      4.163478624      0.000000000
H        0.506429977      4.459899930      0.877303260
H        0.506429977      4.459899930     -0.877303260
H       -1.025114789      4.683382590      0.000000000

