%nprocshared=6
#p BHandHLYP/def2tzvp pop=full gfinput

Acetilaceton

0 1
B       -0.107142977      0.367320015      0.000000000
C       -1.655346273     -1.760856121      0.000000000
C        0.692825989     -2.126027047      0.000000000
H       -2.642771338     -2.205943956      0.000000000
C        0.010697964      1.187875259      1.397459350
C        0.010697964      1.187875259     -1.397459350
H        0.945535909      1.758450205      1.366100919
H        0.945535909      1.758450205     -1.366100919
H        0.148047530      0.465370548      2.213201746
H        0.148047530      0.465370548     -2.213201746
C       -1.127516819      2.135634174      1.798667370
C       -1.127516819      2.135634174     -1.798667370
H       -1.239915919      2.928498559      1.056024981
H       -1.239915919      2.928498559     -1.056024981
H       -2.084763600      1.598300800      1.808080592
H       -2.084763600      1.598300800     -1.808080592
C       -0.926420076      2.776078100      3.173361399
C       -0.926420076      2.776078100     -3.173361399
H       -0.851531417      2.015261064      3.953516726
H       -0.851531417      2.015261064     -3.953516726
H       -0.003772563      3.359557816      3.197908073
H       -0.003772563      3.359557816     -3.197908073
H       -1.750296978      3.443629504      3.434999648
H       -1.750296978      3.443629504     -3.434999648
N       -1.493281791     -0.477870462      0.000000000
N        0.941407922     -0.816141961      0.000000000
N        1.776816376     -2.874461546      0.000000000
C        2.741283933     -1.915459490      0.000000000
N        2.292686717     -0.671928817      0.000000000
H        3.794298228     -2.142223847      0.000000000
N       -0.618956658     -2.603388021      0.000000000
H       -0.757146385     -3.599382261      0.000000000
H       -2.348177733      0.057491792      0.000000000

