#p b3pw91/cc-pvtz pop=full gfinput

Acetilaceton

0 1
O        1.276839000      1.236474000     -0.000433000
C        1.196523000     -0.083936000     -0.000093000
C       -0.007139000     -0.732399000      0.000096000
C       -1.242682000      0.008344000      0.000422000
O       -1.258073000      1.251951000      0.000283000
H        0.329615000      1.570276000     -0.000727000
C       -2.543312000     -0.756153000      0.000026000
H       -2.602746000     -1.402752000     -0.877855000
H       -2.603876000     -1.401345000      0.878872000
H       -3.380002000     -0.062631000     -0.001009000
C        2.519937000     -0.771202000     -0.000095000
H        3.092766000     -0.467697000     -0.878296000
H        3.092988000     -0.467297000      0.877823000
H        2.408784000     -1.852531000      0.000161000
H       -0.027609000     -1.811339000      0.000097000

