%nprocshared=6
#p WB97X/aug-cc-pvdz pop=full gfinput

Acetilaceton

0 1
B        0.000000000      0.000000000      2.275355883
F        1.148302705      0.000000000      3.017803484
F       -1.148302705      0.000000000      3.017803484
O        0.000000000     -1.229410718      1.394772660
O        0.000000000      1.229410718      1.394772660
C        0.000000000     -1.206079972      0.105524398
C        0.000000000      1.206079972      0.105524398
C        0.000000000      0.000000000     -0.593818754
H        0.000000000      0.000000000     -1.666174560
C        0.000000000     -2.527935807     -0.552220616
C        0.000000000      2.527935807     -0.552220616
C        0.000000000     -3.681328674      0.242602413
C        0.000000000      3.681328674      0.242602413
C        0.000000000     -2.668743207     -1.945550285
C        0.000000000      2.668743207     -1.945550285
C        0.000000000     -4.938378611     -0.341911851
C        0.000000000      4.938378611     -0.341911851
C        0.000000000     -3.927141964     -2.526625669
C        0.000000000      3.927141964     -2.526625669
C        0.000000000     -5.065625575     -1.726821703
C        0.000000000      5.065625575     -1.726821703
H        0.000000000     -3.576407173      1.316895061
H        0.000000000      3.576407173      1.316895061
H        0.000000000     -1.799987004     -2.586932990
H        0.000000000      1.799987004     -2.586932990
H        0.000000000     -5.820381798      0.284084556
H        0.000000000      5.820381798      0.284084556
H        0.000000000     -4.020548971     -3.604120489
H        0.000000000      4.020548971     -3.604120489
H        0.000000000     -6.047038619     -2.182125237
H        0.000000000      6.047038619     -2.182125237

