%nprocshared=6
#p cam-b3lyp/def2tzvp pop=full gfinput

Acetilaceton

0 1
B        3.038339705     -0.163375358      1.011574153
F        3.148051754      0.626810181      2.128994806
F        3.679208133     -1.359385925      1.095727260
O        1.558421452     -0.418619548      0.774794517
O        3.591801433      0.607103286     -0.169163876
C        0.859930162      0.221536731     -0.096588318
C        2.843679923      1.222441431     -1.016409240
C        1.460603316      1.085908577     -1.012573332
C        3.567583691      2.075749380     -2.003709076
H        0.857295056      1.624787822     -1.722864217
H        4.313328213      1.472780868     -2.523788903
H        4.106647752      2.861650022     -1.471571109
H        2.891912458      2.525994654     -2.725998835
C       -0.607531082      0.012477452     -0.056201975
C       -1.309996108      0.355674551      1.122148953
C       -2.713641813     -0.637605663     -1.140606722
C       -2.742331657      0.211178778      1.142704041
C       -3.399038955     -0.274891671      0.015319762
H       -4.477402565     -0.378242886      0.040219689
C       -0.681130587      0.883245147      2.290805129
C       -1.414075929      1.226106991      3.389889251
C       -2.823761478      1.071315851      3.409224907
C       -3.466336612      0.579181642      2.314080814
H       -0.910059652      1.619069944      4.262710339
H       -3.381604761      1.347243665      4.293958423
H       -4.542280739      0.459325292      2.310842934
C       -0.616264502     -0.933413117     -2.372835657
C       -1.312994288     -1.432383539     -3.435103959
C       -1.281658263     -0.495965687     -1.187379089
C       -2.726760988     -1.539009149     -3.394760967
C       -3.402319698     -1.157284886     -2.275211682
H       -0.779761878     -1.763157645     -4.316520090
H       -3.259534684     -1.935690864     -4.248365857
H       -4.479798746     -1.248983448     -2.222837764
H        0.390724767      1.001871748      2.318724469
H        0.461081188     -0.887639637     -2.423298686

