# opt freq WB97X cc-pvdz gfinput pop=(full,NBO)

Hffac

0 1
H       -2.067452000     -0.371533000      0.000000000
O       -1.699031000     -1.298247000      0.000000000
O       -1.695489000      1.261846000      0.000000000
C       -0.393177000     -1.186898000      0.000000000
C       -0.467140000      1.210403000      0.000000000
C        0.288692000     -0.009422000      0.000000000
H        1.363827000     -0.000023000      0.000000000
C        0.304477000     -2.542464000      0.000000000
F        1.636935000     -2.406972000      0.000000000
F       -0.043856000     -3.247179000      1.085082000
F       -0.043856000     -3.247179000     -1.085082000
C        0.289430616      2.563423585     -0.004631586
F        1.618753330      2.401381195      0.113200247
F        0.052236410      3.217809847     -1.147653969
F       -0.126320062      3.325053945      1.014217376

